tau_benchmark_results/validation_all_w1.0_20260716_230758.csv
name,n_bus,n_pv,n_pq,pv_ratio,rx_ratio,eta,rho,rho_diag,rho_corr,contraction,nr_converged,nr_iter,nr_time_ms,tpf_converged,tpf_outer_iter,tpf_inner_iter_total,tpf_time_ms,max_v_error,mean_v_error,max_angle_error_deg,max_pv_v_error,speedup,passed,error
sz_75_r000,74,1,73,0.013513513513513514,5.822222222222223,0.27852459450570394,1.7332418111840142,1.7332418933342542,1.7332418111840142,0.23656961527958756,True,4,49.94540000006964,True,7,32,84.13870000003953,9.352315182287185e-07,6.374578846161376e-08,0.0004246565650483092,9.352315182287185e-07,0.5936079354690074,True,
sz_75_r005,74,4,70,0.05405405405405406,5.822222222222223,0.6866087219823002,1.9888286489095035,1.9195234965428667,1.9888286489095035,0.2279845079820703,True,4,58.758499999385094,True,7,32,10.414500000479165,7.702218545180273e-07,3.0023383756155127e-07,0.00034439932770480297,7.702218547400719e-07,5.6419895335044075,True,
sz_75_r010,74,8,66,0.10810810810810811,5.822222222222223,0.38079209267142916,1.9815553454049994,1.949262197550793,1.9815553454049994,0.20826171631466664,True,4,55.52259999967646,True,7,32,7.102800000211573,4.5683638894011835e-07,1.9608064046163056e-07,0.0001979065400830038,4.5683638894011835e-07,7.817001745511994,True,
sz_75_r020,74,15,59,0.20270270270270271,5.822222222222223,1.4596172449260172,2.021715363686441,1.9879513241445954,2.021715363686441,0.20031666036077422,True,4,19.025599998713005,True,7,35,4.633699998521479,3.3220988804316676e-07,1.5927373819385022e-07,0.00013523891716538117,3.3220988804316676e-07,4.10591967645374,True,
sz_75_r030,74,22,52,0.2972972972972973,5.822222222222223,4.4374435007715185,2.23266514795892,1.9744441320205421,2.23266514795892,0.5942845175814706,True,6,30.275999999503256,True,18,119,17.027600000801613,8.284794495994063e-07,3.4133549784401945e-07,0.0006925356161042728,8.28479449488384e-07,1.778054452657917,True,
sz_75_r040,74,30,44,0.40540540540540543,5.822222222222223,2.9854589940494076,2.2182580116104162,2.185179672072743,2.2182580116104162,0.3516659670756098,True,5,20.971000001736684,True,9,50,2691.763800001354,8.238898071555312e-07,4.1860864642958004e-07,0.00041444901698373116,8.238898071555312e-07,0.00779080244772076,True,
sz_75_r050,74,38,36,0.5135135135135135,5.822222222222223,7.231158945942072,2.274082210562346,2.094058275661909,2.274082210562346,0.6352946141433133,True,6,62.2588000005635,True,19,127,26.30449999924167,8.907032489346989e-07,4.827871043995231e-07,0.0008076666083018935,8.906099576710957e-07,2.3668497786446556,True,
sz_75_r060,74,45,29,0.6081081081081081,5.822222222222223,4.548795625656279,2.2119079047762797,2.132026398237899,2.2119079047762797,0.4344165595990047,True,5,38.96290000011504,True,12,72,31.6592999988643,4.884628834744831e-07,2.396916337707519e-07,0.00028066512668489807,4.884138600225185e-07,1.2306936666797037,True,
